STAAD SPACE
START JOB INFORMATION
ENGINEER DATE 18-Mar-26
END JOB INFORMATION
INPUT WIDTH 79
UNIT METER KN
JOINT COORDINATES
1 0 0 0 ;
2 0 0 4.0 ;
3 8.0 0 0 ;
4 8.0 0 4.0 ;
11 0 3.0 0 ;
12 0 3.0 4.0 ;
13 0.7272727272727273 3.0 0 ;
14 0.7272727272727273 3.0 4.0 ;
15 1.4545454545454546 3.0 0 ;
16 1.4545454545454546 3.0 4.0 ;
17 2.1818181818181817 3.0 0 ;
18 2.1818181818181817 3.0 4.0 ;
19 2.909090909090909 3.0 0 ;
20 2.909090909090909 3.0 4.0 ;
21 3.6363636363636367 3.0 0 ;
22 3.6363636363636367 3.0 4.0 ;
23 4.363636363636363 3.0 0 ;
24 4.363636363636363 3.0 4.0 ;
25 5.090909090909091 3.0 0 ;
26 5.090909090909091 3.0 4.0 ;
# ... 20 like lines cut
MEMBER INCIDENCES
1 1 11 ;
2 2 12 ;
3 3 33 ;
4 4 34 ;
101 11 13 ;
102 12 14 ;
103 13 15 ;
104 14 16 ;
105 15 17 ;
106 16 18 ;
107 17 19 ;
108 18 20 ;
109 19 21 ;
110 20 22 ;
111 21 23 ;
112 22 24 ;
113 23 25 ;
114 24 26 ;
115 25 27 ;
116 26 28 ;
# ... 53 like lines cut
DEFINE MATERIAL START
ISOTROPIC STEEL_355_NMM2
E 2.04999e+08
POISSON 0.3
DENSITY 76.9995
ALPHA 6.66667e-06
DAMP 0.03
G 7.88458e+07
TYPE STEEL
STRENGTH FY 354998 FU 469998 RY 1.5 RT 1.2
ISOTROPIC STEEL
E 1.99947e+08
POISSON 0.3
DENSITY 76.8191
ALPHA 6.5e-06
DAMP 0.03
G 7.7221e+07
TYPE STEEL
STRENGTH RY 1.5 RT 1.2
END DEFINE MATERIAL
MEMBER PROPERTY 'EUROPE (EN 2023).DB3'
1 TO 4 TABLE 'SHS' ST 'SHS 120x10'
201 TO 212 TABLE 'SHS' ST 'SHS 120x10'
101 TO 122 TABLE 'SHS' ST 'SHS 120x10'
301 TO 311 TABLE 'SHS' ST 'SHS 120x10'
401 TO 424 TABLE 'SHS' ST 'SHS 120x10'
CONSTANTS
MATERIAL STEEL_355_NMM2 ALL
SUPPORTS
1 PINNED
2 PINNED
3 PINNED
4 PINNED
LOAD 1 LOADTYPE None  TITLE Design
MEMBER LOAD
401 TO 424 UNI GY -2.4525
SELFWEIGHT Y -1.1
LOAD 2 LOADTYPE None  TITLE Egenvekt
SELFWEIGHT Y -1.1
PERFORM ANALYSIS PRINT STATICS CHECK
PARAMETER 1
CODE EN 1993-1-1:2005
TRACK 2 ALL
GM0 1.05 ALL
GM1 1.05 ALL
GM2 1.25 ALL
CHECK CODE ALL
FINISH
